!!>>>>>>>>>>>>>>>>>>>>>>>>>>>>>>>>>>>>>>>>>>>>>>>>>>>>>>>>>>>>>>>>>>>>>>
!! NEMO/OCE :   Reference namelist_ref                                !!
!!>>>>>>>>>>>>>>>>>>>>>>>>>>>>>>>>>>>>>>>>>>>>>>>>>>>>>>>>>>>>>>>>>>>>>>
!! NEMO/OCE  :  1 - Domain & run manager (namrun, namcfg, namdom, namtsd, namcrs, namc1d, namc1d_uvd)
!! namelists    2 - Surface boundary (namsbc, namsbc_flx, namsbc_blk, namsbc_cpl,
!!                                    namsbc_sas, namtra_qsr, namsbc_rnf,
!!                                    namisf, namsbc_apr, 
!!                                    namsbc_ssr, namsbc_wave, namberg)
!!              3 - lateral boundary (namlbc, namagrif, nambdy, nambdy_tide)
!!              4 - top/bot boundary (namdrg, namdrg_top, namdrg_bot, nambbc, nambbl)
!!              5 - Tracer           (nameos, namtra_adv, namtra_ldf, namtra_eiv, namtra_dmp)
!!              6 - dynamics         (namdyn_adv, namdyn_vor, namdyn_hpg, namdyn_spg, namdyn_ldf)
!!              7 - Vertical physics (namzdf, namzdf_ric, namzdf_tke, namzdf_gls, namzdf_iwm)
!!              8 - diagnostics      (namnc4, namtrd, namspr, namflo, namhsb)
!!              9 - Obs & Assim      (namobs, nam_asminc)
!!             10 - miscellaneous    (nammpp, namctl, namsto)
!!>>>>>>>>>>>>>>>>>>>>>>>>>>>>>>>>>>>>>>>>>>>>>>>>>>>>>>>>>>>>>>>>>>>>>>

!!======================================================================
!!              ***  Domain & Run management namelists  ***           !!
!!                                                                    !!
!!   namrun       parameters of the run
!!   namdom       space and time domain
!!   namcfg       parameters of the configuration                       (default: user defined GYRE)
!!   namwad       Wetting and drying                                    (default: OFF)
!!   namtsd       data: temperature & salinity                          (default: OFF)
!!   namcrs       coarsened grid (for outputs and/or TOP)               (ln_crs =T)
!!   namc1d       1D configuration options                              (ln_c1d =T)
!!   namc1d_dyndmp 1D newtonian damping applied on currents             (ln_c1d =T)
!!   namc1d_uvd   1D data (currents)                                    (ln_c1d =T)
!!======================================================================
!
!-----------------------------------------------------------------------
&namrun        !   parameters of the run
!-----------------------------------------------------------------------
   nn_no       =       0   !  job number (no more used...)
   cn_exp      =  'ROSS025' !  experience name
   nn_it000    =   1       !  first time step
   nn_itend    =  26280    !  last  time step (std 5475) 
   nn_date0    = 19790101  !  date at nit_0000 (format yyyymmdd) used if ln_rstart=F or (ln_rstart=T and nn_rstctl=0 or 1)
   ln_rstart   = .false.,  !  start from rest (F) or from a restart file (T)
      nn_rstctl   =    0      !  restart control ==> activated only if ln_rstart=T
   nn_istate   =   1
   nn_leapy    =       0   !  Leap year calendar (1) or not (0)
/
!-----------------------------------------------------------------------
&namdom        !   time and space domain
!-----------------------------------------------------------------------
   rn_Dt      = 1200.     !  time step for the dynamics and tracer
   ln_meshmask = .true.,   !  =T create a mesh file
   ln_linssh   = .false., !  =T  linear free surface  ==>>  model level are fixed in time
   ln_crs      = .false.,  !  Logical switch for coarsening module      (T => fill namcrs)
/
!-----------------------------------------------------------------------
&namcfg        !   parameters of the configuration                      (default: use namusr_def in namelist_cfg)
!-----------------------------------------------------------------------
   ln_read_cfg = .true.,   !  (=T) read the domain configuration file
      !                    !  (=F) user defined configuration           (F => create/check namusr_def)
      cn_domcfg = "domain_cfg"  ! domain configuration filename
   ln_write_cfg = .false.,    !  (=T) create the domain configuration file
      cn_domcfg_out = "domain_cfg_out" ! newly created domain configuration filename
      !
/
!-----------------------------------------------------------------------
&namtile        !   parameters of the tiling
!-----------------------------------------------------------------------
/
!-----------------------------------------------------------------------
&namtsd        !    Temperature & Salinity Data  (init/dmp)             (default: OFF)
!-----------------------------------------------------------------------
   !                       ! =T  read T-S fields for:
   ln_tsd_init = .true.,         !  ocean initialisation
   ln_tsd_dmp  = .false.,        !  T-S restoring   (see namtra_dmp)

   cn_dir      = './'      !  root directory for the T-S data location
   !___________!_____________________!___________________!___________!_____________!________!___________!__________________!__________!_______________!
   !           !  file name          ! frequency (hours) ! variable  ! time interp.!  clim  ! 'yearly'/ ! weights filename ! rotation ! land/sea mask !
   !           !                     !  (if <0  months)  !   name    !   (logical) !  (T/F) ! 'monthly' !                  ! pairing  !    filename   !
   sn_tem = 'istate_TS_ROSS025.nc',       -12       , 'votemper',   .false.   , .true. , 'yearly'  ,    ''            ,    ''    ,    ''
   sn_sal = 'istate_TS_ROSS025.nc',       -12       , 'vosaline',   .false.   , .true. , 'yearly'  ,    ''            ,    ''    ,    ''
/
!-----------------------------------------------------------------------
&namwad        !   Wetting and Drying (WaD)                             (default: OFF)
!-----------------------------------------------------------------------
/
!-----------------------------------------------------------------------
&namcrs        !   coarsened grid (for outputs and/or TOP)              (ln_crs =T)
!-----------------------------------------------------------------------
/
!-----------------------------------------------------------------------
&namc1d        !   1D configuration options                             (ln_c1d =T default: PAPA station)
!-----------------------------------------------------------------------
/
!-----------------------------------------------------------------------
&namc1d_dyndmp !   U & V newtonian damping                              (ln_c1d =T default: OFF)
!-----------------------------------------------------------------------
/
!-----------------------------------------------------------------------
&namc1d_uvd    !   data: U & V currents                                 (ln_c1d =T default: OFF)
!-----------------------------------------------------------------------
/

!!======================================================================
!!            ***  Surface Boundary Condition namelists  ***          !!
!!                                                                    !!
!!   namsbc          surface boundary condition manager                 (default: NO selection)
!!   namsbc_flx      flux               formulation                     (ln_flx     =T)
!!   namsbc_blk      Bulk formulae formulation                          (ln_blk     =T)
!!   namsbc_cpl      CouPLed            formulation                     ("key_oasis3" )
!!   namsbc_sas      Stand-Alone Surface module                         (SAS_SRC  only)
!!   namsbc_iif      Ice-IF: use observed ice cover                     (nn_ice = 1   )
!!   namtra_qsr      penetrative solar radiation                        (ln_traqsr  =T)
!!   namsbc_ssr      sea surface restoring term (for T and/or S)        (ln_ssr     =T)
!!   namsbc_rnf      river runoffs                                      (ln_rnf     =T)
!!   namsbc_apr      Atmospheric Pressure                               (ln_apr_dyn =T)
!!   namsbc_iscpl    coupling option between land ice model and ocean   (ln_isfcav  =T)
!!   namsbc_wave     external fields from wave model                    (ln_wave    =T)
!!   namberg         iceberg floats                                     (ln_icebergs=T)
!!======================================================================
!
!-----------------------------------------------------------------------
&namsbc        !   Surface Boundary Condition manager                   (default: NO selection)
!-----------------------------------------------------------------------
   nn_fsbc     = 1         !  frequency of surface boundary condition computation
      !                    !  (control sea-ice & iceberg model call)
                     ! Type of air-sea fluxes 
   ln_blk      = .true.,   !  Bulk formulation                          (T => fill namsbc_blk )
                     ! Sea-ice :
   nn_ice      = 2         !  =0 no ice boundary condition
      !                    !  =1 use observed ice-cover                 (  => fill namsbc_iif )
      !                    !  =2 or 3 for SI3 and CICE, respectively
   ln_ice_embd = .false.,  !  =T embedded sea-ice (pressure + mass and salt exchanges)
      !                    !  =F levitating ice (no pressure, mass and salt exchanges)
                     ! Misc. options of sbc : 
   ln_traqsr   = .true.,   !  Light penetration in the ocean            (T => fill namtra_qsr)
   ln_dm2dc    = .false.,  !  daily mean to diurnal cycle on short wave
   ln_ssr      = .true.,  !  Sea Surface Restoring on T and/or S       (T => fill namsbc_ssr)
   nn_fwb      = 0         !  FreshWater Budget: =0 unchecked
      !                    !     =1 global mean of e-p-r set to zero at each time step
      !                    !     =2 annual global mean of e-p-r set to zero
   ln_rnf      = .true.,   !  runoffs                                   (T   => fill namsbc_rnf)
/
!-----------------------------------------------------------------------
&namsbc_flx    !   surface boundary condition : flux formulation        (ln_flx =T)
!-----------------------------------------------------------------------
/
!-----------------------------------------------------------------------
&namsbc_blk    !   namsbc_blk  generic Bulk formula                     (ln_blk =T)
!-----------------------------------------------------------------------
   !                    !  bulk algorithm :
   ln_NCAR     = .true.,    ! "NCAR"      algorithm   (Large and Yeager 2008)
   ln_COARE_3p0 = .false.,  ! "COARE 3.0" algorithm   (Fairall et al. 2003)
   ln_COARE_3p6 = .false.,  ! "COARE 3.6" algorithm   (Edson et al. 2013)
   ln_ECMWF     = .false.,  ! "ECMWF"     algorithm   (IFS cycle 45r1)
   !

   cn_dir      = '../EXP02/JRA/'      !  root directory for the bulk data location
   !___________!_________________________!___________________!___________!_____________!________!___________!______________________________________!__________!_______________!
   !           !  file name              ! frequency (hours) ! variable  ! time interp.!  clim  ! 'yearly'/ !       weights filename               ! rotation ! land/sea mask !
   !           !                         !  (if <0  months)  !   name    !   (logical) !  (T/F) ! 'monthly' !                                      ! pairing  !    filename   !
   sn_wndi     = 'u10_JRA'              ,         3         , 'uas_10m' ,   .true.    , .false. , 'yearly'  , 'weights_bicubic_JRA_oct22.nc'           , 'Uwnd'   , ''
   sn_wndj     = 'v10_JRA'              ,         3         , 'vas_10m' ,   .true.    , .false. , 'yearly'  , 'weights_bicubic_JRA_oct22.nc'           , 'Vwnd'   , ''
   sn_qsr      = 'rsds_JRA'             ,         3         , 'rsds'    ,   .true.    , .false. , 'yearly'  , 'weights_bilin_JRA.nc'             , ''       , ''
   sn_qlw      = 'rlds_JRA'             ,         3         , 'rlds'    ,   .true.    , .false. , 'yearly'  , 'weights_bilin_JRA.nc'             , ''       , ''
   sn_tair     = 't10_JRA'              ,         3         , 'tas_10m' ,   .true.    , .false. , 'yearly'  , 'weights_bilin_JRA.nc'             , ''       , ''
   sn_humi     = 'q10_JRA'              ,         3         , 'huss_10m',   .true.    , .false. , 'yearly'  , 'weights_bilin_JRA.nc'             , ''       , ''
   sn_prec     = 'precip_JRA'           ,         3         , 'prrn'    ,   .true.    , .false. , 'yearly'  , 'weights_bilin_JRA.nc'             , ''       , ''
   sn_snow     = 'snow_JRA'             ,         3         , 'prsn'    ,   .true.    , .false. , 'yearly'  , 'weights_bilin_JRA.nc'             , ''       , ''
   sn_slp      = 'slp_JRA'              ,         3         , 'psl'     ,   .true.    , .false. , 'yearly'  , 'weights_bilin_JRA.nc'             , ''       , ''
/
!-----------------------------------------------------------------------
&namsbc_cpl    !   coupled ocean/atmosphere model                       ("key_oasis3")
!-----------------------------------------------------------------------
/
!-----------------------------------------------------------------------
&namsbc_sas    !   Stand-Alone Surface module: ocean data               (SAS_SRC  only)
!-----------------------------------------------------------------------
/
!-----------------------------------------------------------------------
&namsbc_iif    !   Ice-IF : use observed ice cover                      (nn_ice = 1)
!-----------------------------------------------------------------------
/
!-----------------------------------------------------------------------
&namtra_qsr    !   penetrative solar radiation                          (ln_traqsr =T)
!-----------------------------------------------------------------------
   !                       !  type of penetration                        (default: NO selection)
   ln_qsr_rgb  = .true.,   !  RGB (Red-Green-Blue) light penetration
   !                       !  RGB & 2BD choices:
   nn_chldta   =      1    !  RGB : 2D Chl data (=1), 3D Chl data (=2) or cst value (=0)
   rn_abs      =   0.53       !  RGB & 2BD: fraction absorbed in the very near surface !!!ASM

   cn_dir      = './'      !  root directory for the chlorophyl data location
   !___________!_________________________!___________________!___________!_____________!________!___________!__________________!__________!_______________!
   !           !  file name              ! frequency (hours) ! variable  ! time interp.!  clim  ! 'yearly'/ ! weights filename ! rotation ! land/sea mask !
   !           !                         !  (if <0  months)  !   name    !   (logical) !  (T/F) ! 'monthly' !                  ! pairing  !    filename   !
   sn_chl      = 'chlorophyl_ROSS025'    ,        -1         , 'CHLA'    ,   .true.    , .true. , 'yearly'  , 'weights_bilin_chl.nc'     , ''       , ''
/
!-----------------------------------------------------------------------
&namsbc_ssr    !   surface boundary condition : sea surface restoring   (ln_ssr =T)
!-----------------------------------------------------------------------
   nn_sssr     =     2     !  add a damping     term in the surface freshwater flux (=2)
      !                    !  or to SSS only (=1) or no damping term (=0)
      rn_deds     =  -166.67  !  magnitude of the damping on salinity   [mm/day]
      ln_sssr_bnd =  .true.,  !  flag to bound erp term (associated with nn_sssr=2)
      rn_sssr_bnd =   4.e0    !  ABS(Max/Min) value of the damping erp term [mm/day]


   cn_dir      = './'      !  root directory for the SST/SSS data location
   !___________!_________________________!___________________!___________!_____________!________!___________!__________________!__________!_______________!
   !           !  file name              ! frequency (hours) ! variable  ! time interp.!  clim  ! 'yearly'/ ! weights filename ! rotation ! land/sea mask !
   !           !                         !  (if <0  months)  !   name    !   (logical) !  (T/F) ! 'monthly' !                  ! pairing  !    filename   !
   sn_sst      = 'NOT USED'              ,        24.        ,  'sst'    ,    .false.  , .false., 'yearly'  ,    ''            ,    ''    ,     ''
   sn_sss      = 'sss_ROSS025'           ,        -1.        , 'sosaline',    .true.   , .true. , 'yearly'  ,    ''            ,    ''    ,     ''

/
!-----------------------------------------------------------------------
&namsbc_rnf    !   runoffs                                              (ln_rnf =T)
!-----------------------------------------------------------------------
   ln_rnf_mouth  = .false.,    !  specific treatment at rivers mouths
      rn_hrnf    =  10.e0     !  depth over which enhanced vertical mixing is used    (ln_rnf_mouth=T)
      rn_avt_rnf =   2.e-3    !  value of the additional vertical mixing coef. [m2/s] (ln_rnf_mouth=T)
   ln_rnf_icb    = .true.,  !  read iceberg flux

   cn_dir      = '../EXP02/JRA/'      !  root directory for the runoff data location
   !___________!_________________________!___________________!___________!_____________!________!___________!__________________!__________!_______________!
   !           !  file name              ! frequency (hours) ! variable  ! time interp.!  clim  ! 'yearly'/ ! weights filename ! rotation ! land/sea mask !
   !           !                         !  (if <0  months)  !   name    !   (logical) !  (T/F) ! 'monthly' !                  ! pairing  !    filename   !
   sn_rnf      = 'runoff_JRA'            ,       24          , 'friver'  ,   .true.    , .false., 'yearly'  , 'weights_bilin_JRA.nc'               , ''       , ''
   sn_i_rnf    = 'bergmelt'              ,       -1.         , 'sorunoff',   .true.    , .true. , 'yearly'  , ''               , ''       , ''
/
!-----------------------------------------------------------------------
&namsbc_apr    !   Atmospheric pressure used as ocean forcing           (ln_apr_dyn =T)
!-----------------------------------------------------------------------
/
!-----------------------------------------------------------------------
&namisf       !  Top boundary layer (ISF)                               (default: OFF)
!-----------------------------------------------------------------------
   !
   ! ---------------- ice shelf melt formulation -------------------------------
   !
   ln_isf = .true.,           ! activate ice shelf module
      cn_isfdir = './'           ! directory for all ice shelf input file
      !
      ! ---------------- cavities opened -------------------------------
      !
      ln_isfcav_mlt = .true.,    ! ice shelf melting into the cavity
         cn_isfcav_mlt = '3eq'   ! ice shelf melting formulation (spe/2eq/3eq/oasis)
         !                       ! spe = fwfisf is read from a forcing field
         !                       ! 2eq = ISOMIP  like: 2 equations formulation (Hunter et al., 2006 for a short description)
         !                       ! 3eq = ISOMIP+ like: 3 equations formulation (Asay-Davis et al., 2016 for a short description)
         !                       ! oasis = fwfisf is given by oasis and pattern by file sn_isfcav_fwf
         !              !  cn_isfcav_mlt = 2eq or 3eq cases:
         cn_gammablk = 'vel'     ! scheme to compute gammat/s (spe,ad15,hj99)
         !                       ! spe      = constant transfert velocity (rn_gammat0, rn_gammas0)
         !                       ! vel      = velocity dependent transfert velocity (u* * gammat/s) (Asay-Davis et al. 2016 for a short description)
         !                       ! vel_stab = velocity and stability dependent transfert coeficient (Holland et al. 1999 for a complete description)
         rn_gammat0  = 1.4e-2    ! gammat coefficient used in spe, vel and vel_stab gamma computation method
         rn_gammas0  = 4.0e-4    ! gammas coefficient used in spe, vel and vel_stab gamma computation method
         !
         rn_htbl     =  30.      ! thickness of the top boundary layer    (Losch et al. 2008)
         !                       ! 0 => thickness of the tbl = thickness of the first wet cell
         !
         !* 'spe' and 'oasis' case
         !___________!_____________!___________________!___________!_____________!_________!___________!__________!__________!_______________!
         !           !  file name  ! frequency (hours) ! variable  ! time interp.!  clim   ! 'yearly'/ ! weights  ! rotation ! land/sea mask !
         !           !             !  (if <0  months)  !   name    !  (logical)  !  (T/F)  ! 'monthly' ! filename ! pairing  ! filename      !
         sn_isfcav_fwf = 'isfmlt_cav',      -12.      , 'fwflisf'  ,  .false.    , .true.  , 'yearly'  ,    ''    ,   ''     ,    ''
      !
      ! ---------------- cavities parametrised -------------------------------
      !
      ln_isfpar_mlt = .false.,   ! ice shelf melting parametrised
         cn_isfpar_mlt = 'bg03'  ! ice shelf melting parametrisation (spe/bg03/oasis)
         !                      ! spe   = fwfisf is read from a forcing field
         !                      ! bg03  = melt computed using Beckmann and Goosse parametrisation
         !                      ! oasis = fwfisf is given by oasis and pattern by file sn_isfpar_fwf
         !
         !* all cases
         !___________!_____________!___________________!___________!_____________!_________!___________!__________!__________!_______________!
         !           !  file name  ! frequency (hours) ! variable  ! time interp.!  clim   ! 'yearly'/ ! weights  ! rotation ! land/sea mask !
         !           !             !  (if <0  months)  !   name    !  (logical)  !  (T/F)  ! 'monthly' ! filename ! pairing  ! filename      !
         sn_isfpar_zmax = 'isfmlt_par',      -12.      , 'sozisfmax' ,  .false.    , .true.  , 'yearly'  ,    ''    ,   ''     ,    ''
         sn_isfpar_zmin = 'isfmlt_par',      -12.      , 'sozisfmin' ,  .false.    , .true.  , 'yearly'  ,    ''    ,   ''     ,    ''
         !* 'spe' and 'oasis' case
         sn_isfpar_fwf = 'isfmlt_par' ,      -12.      ,'sofwfisf' ,  .false.    , .true.  , 'yearly'   ,    ''    ,   ''     ,    ''
         !* 'bg03' case
         sn_isfpar_Leff = 'isfmlt_par',       0.       ,'Leff'     ,  .false.    , .true.  , 'yearly'   ,    ''    ,   ''     ,    ''
      !
      ! ---------------- ice sheet coupling -------------------------------
      !
      ln_isfcpl = .false.,
/
!-----------------------------------------------------------------------
&namsbc_wave   ! External fields from wave model                        (ln_wave=T)
!-----------------------------------------------------------------------
/
!-----------------------------------------------------------------------
&namberg       !   iceberg parameters                                   (default: OFF)
!-----------------------------------------------------------------------
     ln_icebergs    =   .false.,
/

!!======================================================================
!!               ***  Lateral boundary condition  ***                 !!
!!                                                                    !!
!!   namlbc        lateral momentum boundary condition                  (default: NO selection)
!!   namagrif      agrif nested grid   (read by child model only)       ("key_agrif")
!!   nam_tide      Tidal forcing                                        (default: OFF)
!!   nambdy        Unstructured open boundaries                         (default: OFF)
!!   nambdy_dta    Unstructured open boundaries - external data         (see  nambdy)
!!   nambdy_tide   tidal forcing at open boundaries                     (default: OFF)
!!======================================================================
!
!-----------------------------------------------------------------------
&namlbc        !   lateral momentum boundary condition                  (default: NO selection)
!-----------------------------------------------------------------------
   !                       !  free slip  !   partial slip  !   no slip   ! strong slip
   rn_shlat    =    1.     !  shlat = 0  !  0 < shlat < 2  !  shlat = 2  !  2 < shlat
/
!-----------------------------------------------------------------------
&namagrif      !  AGRIF zoom                                            ("key_agrif")
!-----------------------------------------------------------------------
/
!-----------------------------------------------------------------------
&nam_tide      !   tide parameters                                      (default: OFF)
!-----------------------------------------------------------------------
   ln_tide     = .true.,      ! Activate tides
      ln_tide_pot   = .false.,              !  use tidal potential forcing
      sn_tide_cnames(1) = 'M2'  !  name of constituent - all tidal components must be set in namelist_cfg
      sn_tide_cnames(2) = 'S2'
      sn_tide_cnames(3) = 'K1'
      sn_tide_cnames(4) = 'O1'
/
!-----------------------------------------------------------------------
&nambdy        !  unstructured open boundaries                          (default: OFF)
!-----------------------------------------------------------------------
   ln_bdy         = .true.,   !  Use unstructured open boundaries
   nb_bdy         = 1         !  number of open boundary sets
   ln_coords_file = .true.,   !  =T : read bdy coordinates from file
      cn_coords_file = 'coordinates_bdy_ROSS025.nc' !  bdy coordinates files
   ln_mask_file   = .false.,  !  =T : read mask from file
      cn_mask_file = ''       !  name of mask file (if ln_mask_file=.TRUE.)
   cn_dyn2d       = 'flather' !
   nn_dyn2d_dta   =  1        !  = 0, bdy data are equal to the initial state
      !                       !  = 1, bdy data are read in 'bdydata   .nc' files
      !                       !  = 2, use tidal harmonic forcing data from files
      !                       !  = 3, use external data AND tidal harmonic forcing
   cn_dyn3d      =  'frs'     !
   nn_dyn3d_dta  =  1         !  = 0, bdy data are equal to the initial state
   !                          !  = 1, bdy data are read in 'bdydata   .nc' files
   cn_tra        =  'frs'     !
   nn_tra_dta    =  1         !  = 0, bdy data are equal to the initial state
   !                          !  = 1, bdy data are read in 'bdydata   .nc' files
   cn_ice        =  'frs'     !
   nn_ice_dta    =  1         !  = 0, bdy data are equal to the initial state
   !                          !  = 1, bdy data are read in 'bdydata   .nc' files
   !
   nn_rimwidth   = 1          !  width of the relaxation zone
   ln_vol        = .false.,   !  total volume correction (see nn_volctl parameter) !!!ASM must be false with tides
   nn_volctl     =  1         !  = 0, the total water flux across open boundaries is zero
/
!-----------------------------------------------------------------------
&nambdy_dta    !  open boundaries - external data                       (see nam_bdy)
!-----------------------------------------------------------------------
   ln_full_vel = .false.,     ! ASM !!! if 3d velocity data contain total velocity (ie barotropic and baroclinic) 
   ln_zinterp  = .false.,    ! 

   cn_dir      = '../EXP02/bdy/'    !  root directory for the BDY data location
   !___________!_________________________!___________________!___________!_____________!________!___________!__________________!__________!_______________!
   !           !  file name              ! frequency (hours) ! variable  ! time interp.!  clim  ! 'yearly'/ ! weights filename ! rotation ! land/sea mask !
   !           !                         !  (if <0  months)  !   name    !   (logical) !  (T/F) ! 'monthly' !                  ! pairing  !    filename   !
   bn_ssh      =    'bdyT_ssh'           ,        120        , 'sossheig' ,     .true. , .false., 'yearly'  ,    ''            ,   ''     ,     ''
   bn_u2d      =    'bdyU_u2d'           ,        120        , 'vobtcrtx' ,     .true. , .false., 'yearly'  ,    ''            ,   ''     ,     ''
   bn_v2d      =    'bdyV_u2d'           ,        120        , 'vobtcrty' ,     .true. , .false., 'yearly'  ,    ''            ,   ''     ,     ''
   bn_u3d      =    'bdyU_u3d'           ,        120        , 'vozocrtx' ,     .true. , .false., 'yearly'  ,    ''            ,   ''     ,     ''
   bn_v3d      =    'bdyV_u3d'           ,        120        , 'vomecrty' ,     .true. , .false., 'yearly'  ,    ''            ,   ''     ,     ''
   bn_tem      =    'bdyT_tra'           ,        120        , 'votemper' ,     .true. , .false., 'yearly'  ,    ''            ,   ''     ,     ''
   bn_sal      =    'bdyT_tra'           ,        120        , 'vosaline' ,     .true. , .false., 'yearly'  ,    ''            ,   ''     ,     ''
!* for si3
   bn_a_i      =    'bdyT_ice'           ,        120        , 'ileadfra' ,     .true. , .false., 'yearly'  ,    ''            ,   ''     ,     ''
   bn_h_i      =    'bdyT_ice'           ,        120        , 'iicethic' ,     .true. , .false., 'yearly'  ,    ''            ,   ''     ,     ''
   bn_h_s      =    'bdyT_ice'           ,        120        , 'isnowthi' ,     .true. , .false., 'yearly'  ,    ''            ,   ''     ,     ''
/
!-----------------------------------------------------------------------
&nambdy_tide   !  tidal forcing at open boundaries                      (default: OFF)
!-----------------------------------------------------------------------
   filtide          = '../EXP05/bdytide/ROSS025_bdytide_ '         !  file name root of tidal forcing files
!  filtide          = ' '         !  file name root of tidal forcing files
/

!!======================================================================
!!                ***  Top/Bottom boundary condition  ***             !!
!!                                                                    !!
!!   namdrg        top/bottom drag coefficient                          (default: NO selection)
!!   namdrg_top    top    friction                                      (ln_drg_OFF=F & ln_isfcav=T)